Version 4
SHEET 1 880 736
WIRE -368 144 -368 96
WIRE -400 160 -672 160
WIRE -144 176 -336 176
WIRE -400 192 -480 192
WIRE -960 272 -960 192
WIRE -672 272 -672 160
WIRE -368 288 -368 208
WIRE -960 400 -960 352
WIRE -960 400 -1056 400
WIRE -480 400 -480 192
WIRE -336 400 -480 400
WIRE -144 400 -144 176
WIRE -144 400 -256 400
WIRE -960 448 -960 400
WIRE -144 448 -144 400
WIRE -480 464 -480 400
WIRE -960 576 -960 528
WIRE -672 592 -672 352
WIRE -480 592 -480 544
WIRE -480 592 -672 592
WIRE -144 592 -144 528
WIRE -144 592 -480 592
WIRE -480 640 -480 592
FLAG -368 288 Vin
FLAG -368 96 Vout
FLAG -1056 400 0
FLAG -960 192 Vin
FLAG -960 576 Vout
FLAG -480 640 0
SYMBOL Opamps\\opamp2 -368 240 M180
SYMATTR InstName U2
SYMATTR Value LM741
SYMBOL voltage -960 256 R0
WINDOW 123 0 0 Left 2
WINDOW 39 0 0 Left 2
SYMATTR InstName V3
SYMATTR Value 12
SYMBOL voltage -672 256 R0
SYMATTR InstName V1
SYMATTR Value 1
SYMBOL EuropeanResistor+- -352 416 R270
WINDOW 0 27 56 VTop 2
WINDOW 3 5 56 VBottom 2
SYMATTR InstName R1
SYMATTR Value 40k
SYMBOL EuropeanResistor+- -496 448 R0
SYMATTR InstName R2
SYMATTR Value 5k
SYMBOL EuropeanResistor+- -160 432 R0
SYMATTR InstName R3
SYMATTR Value 20k
SYMBOL voltage -960 432 R0
WINDOW 123 0 0 Left 2
WINDOW 39 0 0 Left 2
SYMATTR InstName V2
SYMATTR Value 12
TEXT -672 720 Left 2 !.op
TEXT -680 680 Left 2 !.lib LM741.lib
TEXT -560 -16 Left 2 ;Non-ideal Operational Amplifier
TEXT -368 648 Left 2 ;Practice Problem 5.1
TEXT -80 192 Left 2 ;1. Download 'LM741.zip' from \ngoogle drive and unzip it\n \n2. import 'LM741.lib' into \nthe 'sub' folder under 'lib' and \n'LM741'  into the sym folder \nunder 'lib'
