Version 4
SHEET 1 1304 680
WIRE 384 -16 336 -16
WIRE 544 -16 464 -16
WIRE 176 80 96 80
WIRE 336 80 336 -16
WIRE 336 80 256 80
WIRE 96 144 96 80
WIRE 336 160 336 80
WIRE 400 160 336 160
WIRE 544 176 544 -16
WIRE 544 176 464 176
WIRE 656 176 544 176
WIRE 400 192 336 192
WIRE 96 288 96 224
WIRE 336 288 336 192
WIRE 336 288 96 288
WIRE 336 352 336 288
FLAG 656 176 o
FLAG 336 352 0
SYMBOL voltage 96 128 R0
SYMATTR InstName V1
SYMATTR Value 0.5
SYMBOL EuropeanResistor+- 160 96 R270
WINDOW 0 27 56 VTop 2
WINDOW 3 5 56 VBottom 2
SYMATTR InstName R1
SYMATTR Value 10k
SYMBOL EuropeanResistor+- 368 0 R270
WINDOW 0 27 56 VTop 2
WINDOW 3 5 56 VBottom 2
SYMATTR InstName R2
SYMATTR Value 25k
SYMBOL Opamps\\opamp 432 112 R0
SYMATTR InstName U1
TEXT 64 376 Left 2 !.op
TEXT 56 336 Left 2 !.lib opamp.sub
TEXT 168 -104 Left 2 ;Ideal Operational Amplifier
TEXT 488 272 Left 2 ;Example 5.3
TEXT 632 -80 Left 2 ;1. 'opamp' is the component for the ideal opamp\n \n2. Click the .op icon to import lib file of the opamp \nwritten as '.lib opamp.sub'\n \n3. run in 'dc op pnt' from the 'edit simulation cmd'
