Version 4
SHEET 1 1264 680
WIRE 304 64 208 64
WIRE 432 64 384 64
WIRE -256 112 -320 112
WIRE 176 112 -176 112
WIRE 176 160 176 112
WIRE 208 160 208 64
WIRE 208 160 176 160
WIRE 224 160 208 160
WIRE -96 176 -128 176
WIRE 176 176 176 160
WIRE 176 176 -16 176
WIRE 432 176 432 64
WIRE 432 176 288 176
WIRE 496 176 432 176
WIRE 224 192 208 192
WIRE 96 240 80 240
WIRE 176 240 176 176
WIRE 432 272 432 176
WIRE -320 288 -320 112
WIRE -128 288 -128 176
WIRE 80 288 80 240
WIRE -320 432 -320 368
WIRE -128 432 -128 368
WIRE -128 432 -320 432
WIRE -32 432 -128 432
WIRE 80 432 80 368
WIRE 80 432 -32 432
WIRE 208 432 208 192
WIRE 208 432 80 432
WIRE 432 432 432 352
WIRE 432 432 208 432
WIRE -32 480 -32 432
FLAG -32 480 0
FLAG 496 176 o
SYMBOL Opamps\\opamp 256 112 R0
SYMATTR InstName U1
SYMBOL voltage -320 272 R0
SYMATTR InstName V1
SYMATTR Value 1.5
SYMBOL voltage -128 272 R0
SYMATTR InstName V2
SYMATTR Value 2
SYMBOL voltage 80 272 R0
SYMATTR InstName V3
SYMATTR Value 1.2
SYMBOL EuropeanResistor+- -272 128 R270
WINDOW 0 27 56 VTop 2
WINDOW 3 5 56 VBottom 2
SYMATTR InstName R1
SYMATTR Value 20k
SYMBOL EuropeanResistor+- -112 192 R270
WINDOW 0 27 56 VTop 2
WINDOW 3 5 56 VBottom 2
SYMATTR InstName R2
SYMATTR Value 10k
SYMBOL EuropeanResistor+- 80 256 R270
WINDOW 0 27 56 VTop 2
WINDOW 3 5 56 VBottom 2
SYMATTR InstName R3
SYMATTR Value 6k
SYMBOL EuropeanResistor+- 416 256 R0
SYMATTR InstName R4
SYMATTR Value 4k
SYMBOL EuropeanResistor+- 288 80 R270
WINDOW 0 27 56 VTop 2
WINDOW 3 5 56 VBottom 2
SYMATTR InstName R5
SYMATTR Value 8k
TEXT -328 512 Left 2 !.lib opamp.sub
TEXT -328 552 Left 2 !.op
TEXT -104 8 Left 2 ;Ideal Operational Amplifier
TEXT 208 488 Left 2 ;Practice Problem 5.6
TEXT 608 224 Left 2 ;1. 'opamp' is the component for the ideal opamp\n \n2. Click the .op icon to import lib file of the opamp \nwritten as '.lib opamp.sub'\n \n3. run in 'dc op pnt' from the 'edit simulation cmd'
