Version 4
SHEET 1 1232 680
WIRE 288 -16 80 -16
WIRE 640 -16 368 -16
WIRE 80 112 80 -16
WIRE 144 112 80 112
WIRE 320 112 224 112
WIRE 448 112 320 112
WIRE 640 112 640 -16
WIRE 640 112 528 112
WIRE 80 160 80 112
WIRE 320 160 320 112
WIRE 640 160 640 112
WIRE 320 288 320 240
WIRE 80 416 80 240
WIRE 320 416 320 368
WIRE 320 416 80 416
WIRE 640 416 640 240
WIRE 640 416 320 416
WIRE 320 480 320 416
FLAG 320 480 0
SYMBOL current 80 240 R180
WINDOW 0 24 80 Left 2
WINDOW 3 24 0 Left 2
SYMATTR InstName I1
SYMATTR Value 4
SYMBOL EuropeanResistor+- 128 128 R270
WINDOW 0 27 56 VTop 2
WINDOW 3 5 56 VBottom 2
SYMATTR InstName R1
SYMATTR Value 3
SYMBOL EuropeanResistor+- 304 144 R0
SYMATTR InstName R2
SYMATTR Value 4
SYMBOL EuropeanResistor+- 272 0 R270
WINDOW 0 27 56 VTop 2
WINDOW 3 5 56 VBottom 2
SYMATTR InstName R3
SYMATTR Value 2
SYMBOL f 528 112 R90
WINDOW 0 -32 40 VBottom 2
WINDOW 3 32 40 VTop 2
SYMATTR InstName F1
SYMATTR Value V1
SYMATTR Value2 4
SYMBOL EuropeanResistor+- 624 144 R0
SYMATTR InstName R4
SYMATTR Value 6
SYMBOL voltage 320 272 R0
SYMATTR InstName V1
SYMATTR Value 0
TEXT 80 480 Left 2 !.op
TEXT 168 -104 Left 2 ;Current dependent current sourcce
TEXT 752 136 Left 2 ;components:\nf - current dependent current source\nh - current dependent voltage source
TEXT 408 456 Left 2 ;Practice Problem 3.2
