Version 4
SHEET 1 1232 680
WIRE 240 64 64 64
WIRE 368 64 240 64
WIRE 592 64 448 64
WIRE 64 128 64 64
WIRE 240 128 240 64
WIRE 592 128 592 64
WIRE 240 256 240 208
WIRE 64 368 64 208
WIRE 240 368 240 336
WIRE 240 368 64 368
WIRE 592 368 592 208
WIRE 592 368 240 368
WIRE 240 416 240 368
FLAG 240 416 0
SYMBOL current 64 208 R180
WINDOW 0 24 80 Left 2
WINDOW 3 24 0 Left 2
SYMATTR InstName I1
SYMATTR Value 24mA
SYMBOL EuropeanResistor+- 224 112 R0
SYMATTR InstName R1
SYMATTR Value 10
SYMBOL EuropeanResistor+- 352 80 R270
WINDOW 0 27 56 VTop 2
WINDOW 3 5 56 VBottom 2
SYMATTR InstName R2
SYMATTR Value 5
SYMBOL h 592 224 R180
WINDOW 0 24 96 Left 2
WINDOW 3 24 16 Left 2
SYMATTR InstName H1
SYMATTR Value V1
SYMATTR Value2 2
SYMBOL voltage 240 240 R0
SYMATTR InstName V1
SYMATTR Value 0
TEXT 144 -16 Left 2 ;Current dependent voltage sourcce
TEXT 688 136 Left 2 ;components:\nf - current dependent current source\nh - current dependent voltage source
TEXT 62 426 Left 2 !.op
TEXT 256 96 Left 2 ;<- ix
TEXT 368 416 Left 2 ;Practice Problem 4.7
