Version 4
SHEET 1 1196 680
WIRE 128 80 48 80
WIRE 256 80 256 -16
WIRE 256 80 208 80
WIRE 336 80 336 -16
WIRE 384 80 336 80
WIRE 512 80 464 80
WIRE 48 144 48 80
WIRE 512 144 512 80
WIRE 256 160 256 80
WIRE 336 160 336 80
WIRE 48 288 48 224
WIRE 304 288 48 288
WIRE 512 288 512 224
WIRE 512 288 304 288
WIRE 304 320 304 288
FLAG 304 320 0
SYMBOL voltage 48 128 R0
SYMATTR InstName V1
SYMATTR Value 8
SYMBOL voltage 512 128 R0
WINDOW 123 0 0 Left 2
WINDOW 39 0 0 Left 2
SYMATTR InstName V2
SYMATTR Value 6
SYMBOL EuropeanResistor+- 112 96 R270
WINDOW 0 27 56 VTop 2
WINDOW 3 5 56 VBottom 2
SYMATTR InstName R1
SYMATTR Value 6
SYMBOL EuropeanResistor+- 368 96 R270
WINDOW 0 27 56 VTop 2
WINDOW 3 5 56 VBottom 2
SYMATTR InstName R2
SYMATTR Value 8
SYMBOL EuropeanResistor+- 240 0 R270
WINDOW 0 27 56 VTop 2
WINDOW 3 5 56 VBottom 2
SYMATTR InstName R3
SYMATTR Value 2
SYMBOL current 256 160 R270
WINDOW 0 32 40 VTop 2
WINDOW 3 -32 40 VBottom 2
SYMATTR InstName I1
SYMATTR Value 2
TEXT 48 336 Left 2 !.op
TEXT 192 -96 Left 2 ;Practice Problem 4.5
TEXT 592 88 Left 2 ;1. Download 'resistor with polarity.zip'\nfrom google drive and unzip it\n \n2. Import 'EuropeanResistor+-' to the \n'sym' folder of Ltspice under 'lib'
